input/IEEE14busPsse30.raw
0, 100.0/RAWD VER 30 EXPORT BY PSAT 
 IEEE 14 Bus Test Case
 
       1,'Bus 1     HV',   0.00,3,          0.000,          0.000,   1,   1,1.06000,   0.0000,   1
       2,'Bus 2     HV',   0.00,2,          0.000,          0.000,   1,   1,1.04500,  -4.9800,   1
       3,'Bus 3     HV',   0.00,2,          0.000,          0.000,   1,   1,1.01000, -12.7200,   1
       4,'Bus 4     HV',   0.00,1,          0.000,          0.000,   1,   1,1.01900, -10.3300,   1
       5,'Bus 5     HV',   0.00,1,          0.000,          0.000,   1,   1,1.02000,  -8.7800,   1
       6,'Bus 6     LV',   0.00,2,          0.000,          0.000,   1,   1,1.07000, -14.2200,   1
       7,'Bus 7     ZV',   0.00,1,          0.000,          0.000,   1,   1,1.06200, -13.3700,   1
       8,'Bus 8     TV',   0.00,2,          0.000,          0.000,   1,   1,1.09000, -13.3600,   1
       9,'Bus 9     LV',   0.00,1,          0.000,         19.000,   1,   1,1.05600, -14.9400,   1
      10,'Bus 10    LV',   0.00,1,          0.000,          0.000,   1,   1,1.05100, -15.1000,   1
      11,'Bus 11    LV',   0.00,1,          0.000,          0.000,   1,   1,1.05700, -14.7900,   1
      12,'Bus 12    LV',   0.00,1,          0.000,          0.000,   1,   1,1.05500, -15.0700,   1
      13,'Bus 13    LV',   0.00,1,          0.000,          0.000,   1,   1,1.05000, -15.1600,   1
      14,'Bus 14    LV',   0.00,1,          0.000,          0.000,   1,   1,1.03600, -16.0400,   1
0 / END OF BUS DATA, BEGIN LOAD DATA
     2,'BL',1,   1,   1,    21.700,    12.700,     0.000,     0.000,     0.000,     0.000,   1
     3,'BL',1,   1,   1,    94.200,    19.000,     0.000,     0.000,     0.000,     0.000,   1
     4,'BL',1,   1,   1,    47.800,    -3.900,     0.000,     0.000,     0.000,     0.000,   1
     5,'BL',1,   1,   1,     7.600,     1.600,     0.000,     0.000,     0.000,     0.000,   1
     6,'BL',1,   1,   1,    11.200,     7.500,     0.000,     0.000,     0.000,     0.000,   1
     9,'BL',1,   1,   1,    29.500,    16.600,     0.000,     0.000,     0.000,     0.000,   1
    10,'BL',1,   1,   1,     9.000,     5.800,     0.000,     0.000,     0.000,     0.000,   1
    11,'BL',1,   1,   1,     3.500,     1.800,     0.000,     0.000,     0.000,     0.000,   1
    12,'BL',1,   1,   1,     6.100,     1.600,     0.000,     0.000,     0.000,     0.000,   1
    13,'BL',1,   1,   1,    13.500,     5.800,     0.000,     0.000,     0.000,     0.000,   1
    14,'BL',1,   1,   1,    14.900,     5.000,     0.000,     0.000,     0.000,     0.000,   1
0 / END OF LOAD DATA, BEGIN GENERATOR DATA
     1,'1 ',   232.40,   -16.90,   -16.90,   -16.90,1.06000,     0,   100.00,      0.00000,      0.00000,      0.00000,      0.00000,1.00000,1,  100.0,  9999.00,     0.00,   1,1.0000,,,,,,,
     2,'1 ',    40.00,    42.40,    50.00,   -40.00,1.04500,     0,   100.00,      0.00000,      0.00000,      0.00000,      0.00000,1.00000,1,  100.0,  9999.00,     0.00,   1,1.0000,,,,,,,
     3,'1 ',     0.00,    23.40,    40.00,     0.00,1.01000,     0,   100.00,      0.00000,      0.00000,      0.00000,      0.00000,1.00000,1,  100.0,  9999.00,     0.00,   1,1.0000,,,,,,,
     6,'1 ',     0.00,    12.20,    24.00,    -6.00,1.07000,     0,   100.00,      0.00000,      0.00000,      0.00000,      0.00000,1.00000,1,  100.0,  9999.00,     0.00,   1,1.0000,,,,,,,
     8,'1 ',     0.00,    17.40,    24.00,    -6.00,1.09000,     0,   100.00,      0.00000,      0.00000,      0.00000,      0.00000,1.00000,1,  100.0,  9999.00,     0.00,   1,1.0000,,,,,,,
 0 / END OF GENERATOR DATA, BEGIN BRANCH DATA
       1,       2,'1 ',    0.19380E-01,    0.59170E-01,    0.52800E-01,    0.00,    0.00,    0.00,  0.00000,  0.00000,  0.00000,  0.00000,1,   0.00,   1,1.0000,,,,,,,
       1,       5,'1 ',    0.54030E-01,    0.22304    ,    0.49200E-01,    0.00,    0.00,    0.00,  0.00000,  0.00000,  0.00000,  0.00000,1,   0.00,   1,1.0000,,,,,,,
       2,       3,'1 ',    0.46990E-01,    0.19797    ,    0.43800E-01,    0.00,    0.00,    0.00,  0.00000,  0.00000,  0.00000,  0.00000,1,   0.00,   1,1.0000,,,,,,,
       2,       4,'1 ',    0.58110E-01,    0.17632    ,    0.34000E-01,    0.00,    0.00,    0.00,  0.00000,  0.00000,  0.00000,  0.00000,1,   0.00,   1,1.0000,,,,,,,
       2,       5,'1 ',    0.56950E-01,    0.17388    ,    0.34600E-01,    0.00,    0.00,    0.00,  0.00000,  0.00000,  0.00000,  0.00000,1,   0.00,   1,1.0000,,,,,,,
       3,       4,'1 ',    0.67010E-01,    0.17103    ,    0.12800E-01,    0.00,    0.00,    0.00,  0.00000,  0.00000,  0.00000,  0.00000,1,   0.00,   1,1.0000,,,,,,,
       4,       5,'1 ',    0.13350E-01,    0.42110E-01,     0.0000    ,    0.00,    0.00,    0.00,  0.00000,  0.00000,  0.00000,  0.00000,1,   0.00,   1,1.0000,,,,,,,
       4,       7,'1 ',     0.0000    ,    0.20912    ,     0.0000    ,    0.00,    0.00,    0.00,  0.00000,  0.00000,  0.00000,  0.00000,1,   0.00,   1,1.0000,,,,,,,
       4,       9,'1 ',     0.0000    ,    0.55618    ,     0.0000    ,    0.00,    0.00,    0.00,  0.00000,  0.00000,  0.00000,  0.00000,1,   0.00,   1,1.0000,,,,,,,
       5,       6,'1 ',     0.0000    ,    0.25202    ,     0.0000    ,    0.00,    0.00,    0.00,  0.00000,  0.00000,  0.00000,  0.00000,1,   0.00,   1,1.0000,,,,,,,
       6,      11,'1 ',    0.94980E-01,    0.19890    ,     0.0000    ,    0.00,    0.00,    0.00,  0.00000,  0.00000,  0.00000,  0.00000,1,   0.00,   1,1.0000,,,,,,,
       6,      12,'1 ',    0.12291    ,    0.25581    ,     0.0000    ,    0.00,    0.00,    0.00,  0.00000,  0.00000,  0.00000,  0.00000,1,   0.00,   1,1.0000,,,,,,,
       6,      13,'1 ',    0.66150E-01,    0.13027    ,     0.0000    ,    0.00,    0.00,    0.00,  0.00000,  0.00000,  0.00000,  0.00000,1,   0.00,   1,1.0000,,,,,,,
       7,       8,'1 ',     0.0000    ,    0.17615    ,     0.0000    ,    0.00,    0.00,    0.00,  0.00000,  0.00000,  0.00000,  0.00000,1,   0.00,   1,1.0000,,,,,,,
       7,       9,'1 ',     0.0000    ,    0.11001    ,     0.0000    ,    0.00,    0.00,    0.00,  0.00000,  0.00000,  0.00000,  0.00000,1,   0.00,   1,1.0000,,,,,,,
       9,      10,'1 ',    0.31810E-01,    0.84500E-01,     0.0000    ,    0.00,    0.00,    0.00,  0.00000,  0.00000,  0.00000,  0.00000,1,   0.00,   1,1.0000,,,,,,,
       9,      14,'1 ',    0.12711    ,    0.27038    ,     0.0000    ,    0.00,    0.00,    0.00,  0.00000,  0.00000,  0.00000,  0.00000,1,   0.00,   1,1.0000,,,,,,,
      10,      11,'1 ',    0.82050E-01,    0.19207    ,     0.0000    ,    0.00,    0.00,    0.00,  0.00000,  0.00000,  0.00000,  0.00000,1,   0.00,   1,1.0000,,,,,,,
      12,      13,'1 ',    0.22092    ,    0.19988    ,     0.0000    ,    0.00,    0.00,    0.00,  0.00000,  0.00000,  0.00000,  0.00000,1,   0.00,   1,1.0000,,,,,,,
      13,      14,'1 ',    0.17093    ,    0.34802    ,     0.0000    ,    0.00,    0.00,    0.00,  0.00000,  0.00000,  0.00000,  0.00000,1,   0.00,   1,1.0000,,,,,,,
0 / END OF BRANCH DATA, BEGIN TRANSFORMER DATA
0 / END OF TRANSFORMER DATA, BEGIN AREA DATA
    1,     2,     0.00,   999.99,'IEEE14      '
0 / END OF AREA DATA, BEGIN TWO-TERMINAL DC DATA
0 / END OF TWO-TERMINAL DC DATA, BEGIN VSC DC LINE DATA
0 / END OF VSC DC LINE DATA, BEGIN SWITCHED SHUNT DATA
 0 / END SWITCHED SHUNT DATA, BEGIN IMPEDANCE CORRECTION TABLE DATA
0 / END OF IMPEDANCE CORRECTION TABLE DATA, BEGIN MULTI-TERMINAL DC DATA
0 / END OF MULTI-TERMINAL DC DATA, BEGIN MULTI-SECTION LINE DATA
0 / END OF MULTI-SECTION LINE DATA, BEGIN ZONE DATA
    1,'IEEE 14 BUS '
0 / END OF ZONE DATA, BEGIN INTER-AREA TRANSFER DATA
0 / END OF INTER-AREA TRANSFER DATA, BEGIN OWNER DATA
0 / END OF OWNER DATA, BEGIN FACTS DEVICE DATA
0 / END OF FACTS DATA
 0 /
